/TITLE Model: PLATE
/COM Finite Element Mesh - PTC - ANSYS 12.0 - PLATE
/PREP7
/NOPR
MP,EX,1,1.119657e+10
MP,ALPX,1,6.500000e-06
MP,NUXY,1,2.700000e-01
MP,DENS,1,2.827713e-01
MP,KXX,1,2.074068e+03
MP,C,1,4.076000e+05
LOCAL,11,0,0.000000,0.000000,0.000000,0.000000,0.000000,0.000000
LOCAL,12,0,0.000000,0.000000,0.000000,0.000000,0.000000,0.000000
LOCAL,13,0,0.000000,0.000000,0.000000,0.000000,0.000000,0.000000
CSYS,11
ET,1,92
N,1,0.000000,0.000000,0.000000
N,2,12.000000,0.000000,0.000000
N,3,12.000000,12.000000,0.000000
N,4,0.000000,12.000000,0.000000
N,5,0.270968,0.000000,0.000000
N,6,0.658065,0.000000,0.000000
N,7,1.122581,0.000000,0.000000
N,8,1.587097,0.000000,0.000000
N,9,2.051613,0.000000,0.000000
N,10,2.516129,0.000000,0.000000
N,11,2.980645,0.000000,0.000000
N,12,3.445161,0.000000,0.000000
N,13,3.909677,0.000000,0.000000
N,14,4.374194,0.000000,0.000000
N,15,4.838710,0.000000,0.000000
N,16,5.303226,0.000000,0.000000
N,17,5.767742,0.000000,0.000000
N,18,6.232258,0.000000,0.000000
N,19,6.696774,0.000000,0.000000
N,20,7.161290,0.000000,0.000000
! ... 3089 like lines cut
CSYS,12
NROTAT,1
NROTAT,2
NROTAT,3
NROTAT,4
NROTAT,5
NROTAT,6
NROTAT,7
NROTAT,8
NROTAT,9
NROTAT,10
NROTAT,11
NROTAT,12
NROTAT,13
NROTAT,14
NROTAT,15
NROTAT,16
NROTAT,17
NROTAT,18
NROTAT,19
NROTAT,20
! ... 88 like lines cut
SHPP,OFF
TYPE,1
MAT,1
EN,1,1899,1594,3109,1595
EN,2,1595,3109,1899,347
EN,3,3109,347,94,348
EN,4,1370,1335,2887,1331
EN,5,965,2560,963,2515
EN,6,1040,2555,2592,997
EN,7,1040,1041,2590,2592
EN,8,1265,1268,2817,2814
EN,9,1265,2818,2817,2823
EN,10,1265,1268,2823,2817
EN,11,1717,168,165,163
EN,12,1717,165,1714,163
EN,13,2097,2100,551,548
EN,14,2097,548,545,543
EN,15,2177,2259,2258,706
EN,16,2177,625,706,2176
EN,17,2177,2174,2175,625
EN,18,2847,1295,1296,2850
EN,19,2847,2844,1296,1295
EN,20,210,1765,211,1762
! ... 8976 like lines cut
SHPP,ON
CHECK
D,1,UX,0
D,1,UY,0
D,1,UZ,0
D,2,UX,0
D,2,UY,0
D,2,UZ,0
D,3,UX,0
D,3,UY,0
D,3,UZ,0
D,4,UX,0
D,4,UY,0
D,4,UZ,0
D,5,UX,0
D,5,UY,0
D,5,UZ,0
D,6,UX,0
D,6,UY,0
D,6,UZ,0
D,7,UX,0
D,7,UY,0
D,7,UZ,0
D,8,UX,0
D,8,UY,0
D,8,UZ,0
D,9,UX,0
D,9,UY,0
D,9,UZ,0
D,10,UX,0
D,10,UY,0
D,10,UZ,0
D,11,UX,0
D,11,UY,0
D,11,UZ,0
D,12,UX,0
D,12,UY,0
D,12,UZ,0
D,13,UX,0
D,13,UY,0
D,13,UZ,0
D,14,UX,0
D,14,UY,0
D,14,UZ,0
D,15,UX,0
D,15,UY,0
D,15,UZ,0
D,16,UX,0
D,16,UY,0
D,16,UZ,0
D,17,UX,0
D,17,UY,0
D,17,UZ,0
D,18,UX,0
D,18,UY,0
D,18,UZ,0
D,19,UX,0
D,19,UY,0
D,19,UZ,0
D,20,UX,0
D,20,UY,0
D,20,UZ,0
! ... 264 like lines cut
/GOPR
FINISH
