/TITLE Model: ASM1
/COM Finite Element Mesh - PTC - ANSYS 12.0 - ASM1
/PREP7
/NOPR
MP,EX,1,7.308443e+04
MP,ALPX,1,2.304000e-05
MP,NUXY,1,3.300000e-01
MP,DENS,1,2.793554e-09
MP,KXX,1,1.921632e+02
MP,C,1,9.637529e+08
MP,EX,2,1.999480e+05
MP,ALPX,2,1.170000e-05
MP,NUXY,2,2.700000e-01
MP,DENS,2,7.827082e-09
MP,KXX,2,4.301252e+01
MP,C,2,4.733410e+08
LOCAL,11,0,0.000000,0.000000,0.000000,0.000000,0.000000,0.000000
LOCAL,12,0,0.000000,0.000000,0.000000,0.000000,0.000000,0.000000
LOCAL,13,0,0.000000,0.000000,0.000000,0.000000,0.000000,0.000000
CSYS,11
ET,1,40,,,1
ET,2,92
R,1
RMODIF,1,4,0
RMODIF,1,6,0
N,1,0.000000,0.000000,0.000000
N,2,100.000000,0.000000,0.000000
N,3,100.000000,50.000000,0.000000
N,4,0.000000,50.000000,0.000000
N,5,15.384615,0.000000,0.000000
N,6,30.769231,0.000000,0.000000
N,7,46.153846,0.000000,0.000000
N,8,61.538462,0.000000,0.000000
N,9,76.923077,0.000000,0.000000
N,10,100.000000,25.000000,0.000000
N,11,76.923077,50.000000,0.000000
N,12,61.538462,50.000000,0.000000
N,13,46.153846,50.000000,0.000000
N,14,30.769231,50.000000,0.000000
N,15,15.384615,50.000000,0.000000
N,16,0.000000,33.333333,0.000000
N,17,0.000000,16.666667,0.000000
N,18,23.389415,22.334501,0.000000
N,19,48.638963,28.278167,0.000000
N,20,70.927007,25.546361,0.000000
! ... 7396 like lines cut
CSYS,12
NROTAT,1
NROTAT,2
NROTAT,3
NROTAT,4
NROTAT,5
NROTAT,6
NROTAT,7
NROTAT,8
NROTAT,9
NROTAT,10
NROTAT,11
NROTAT,12
NROTAT,13
NROTAT,14
NROTAT,15
NROTAT,16
NROTAT,17
NROTAT,18
NROTAT,19
NROTAT,20
SHPP,OFF
TYPE,1
REAL,1
EN,1,1340,22
EN,2,1341,21
EN,3,1342,23
EN,4,1343,25
EN,5,1344,24
EN,6,1345,26
EN,7,1346,30
EN,8,1347,29
EN,9,1348,28
EN,10,1349,27
EN,11,1350,31
EN,12,1351,32
EN,13,1352,33
EN,14,1353,34
EN,15,1354,57
EN,16,1355,56
EN,17,1356,55
EN,18,1357,54
EN,19,1358,53
EN,20,1359,52
! ... 994 like lines cut
TYPE,2
MAT,2
EN,1055,5288,5289,5290,3071
EN,1056,5288,3071,5290,5291
EN,1057,5288,5291,5292,5293
EN,1058,5288,5293,1619,5294
EN,1059,5288,5295,1620,5296
EN,1060,5288,1604,5296,1620
EN,1061,5288,1619,5292,1604
EN,1062,5295,5297,3072,5298
EN,1063,5295,5296,5299,1605
EN,1064,5295,1620,5296,1605
EN,1065,5295,5289,5300,3070
EN,1066,5295,5297,5298,5300
EN,1067,5301,5302,3062,5303
EN,1068,5301,5304,3062,3079
EN,1069,5301,3077,5302,5305
EN,1070,5301,3062,5302,3077
EN,1071,5306,5307,5308,5309
EN,1072,5310,5311,5309,5306
EN,1073,1926,5310,5311,5309
EN,1074,5306,3054,5310,3068
! ... 8811 like lines cut
MAT,1
EN,9886,5368,5369,5370,5371
EN,9887,5372,5373,5374,5375
EN,9888,5371,5376,5369,5370
EN,9889,5377,5371,5378,5379
EN,9890,5371,5379,5377,5380
EN,9891,5381,5382,5383,5384
EN,9892,5385,5386,5382,5381
EN,9893,5381,5383,5387,5388
EN,9894,5381,5389,5383,5388
EN,9895,5381,5390,5391,5385
EN,9896,5381,5390,5389,5391
EN,9897,5392,5393,5369,5370
EN,9898,5392,5394,5395,5396
EN,9899,5392,5397,5398,5395
EN,9900,5392,5369,5376,5370
EN,9901,5392,5399,5397,5395
EN,9902,5392,5400,5396,5398
EN,9903,5401,5394,5402,5403
EN,9904,5401,5404,5405,5406
EN,9905,5401,5407,5408,5393
! ... 12031 like lines cut
MAT,2
EN,21937,6764,6765,6766,6767
EN,21938,6764,6766,6768,6767
EN,21939,6764,6769,6765,6770
EN,21940,6764,6771,6769,6770
EN,21941,6764,6766,6772,6773
EN,21942,5099,5100,6774,5096
EN,21943,6775,6764,6766,6772
EN,21944,6764,6776,6775,6769
EN,21945,6776,6775,6777,6778
EN,21946,6776,6779,6775,6778
EN,21947,6776,6772,6779,6780
EN,21948,6776,6781,6777,6782
EN,21949,6776,6777,6775,6769
EN,21950,6776,6782,6777,6783
EN,21951,6784,6785,6786,6787
EN,21952,6784,6788,6789,6790
EN,21953,6784,6773,6788,6772
EN,21954,6784,6766,6787,6773
EN,21955,6784,6789,6773,6786
EN,21956,6791,6792,6793,6794
! ... 6574 like lines cut
CERIG,3000,5107,ALL
CERIG,3001,5106,ALL
CERIG,3023,4457,ALL
CERIG,3024,4456,ALL
CERIG,3025,5115,ALL
CERIG,3026,5114,ALL
CERIG,3027,5113,ALL
CERIG,3028,5112,ALL
CERIG,3029,5111,ALL
CERIG,3030,5110,ALL
CERIG,3031,5109,ALL
CERIG,3032,5108,ALL
CERIG,3033,4469,ALL
CERIG,3034,4468,ALL
CERIG,3035,4467,ALL
CERIG,3036,4466,ALL
CERIG,3037,4465,ALL
CERIG,3038,4464,ALL
CERIG,3039,4463,ALL
CERIG,3040,4462,ALL
! ... 20 like lines cut
SHPP,ON
CHECK
D,1,UX,0
D,1,UY,0
D,1,UZ,0
D,2,UX,0
D,2,UY,0
D,2,UZ,0
D,3,UX,0
D,3,UY,0
D,3,UZ,0
D,4,UX,0
D,4,UY,0
D,4,UZ,0
D,5,UX,0
D,5,UY,0
D,5,UZ,0
D,6,UX,0
D,6,UY,0
D,6,UZ,0
D,7,UX,0
D,7,UY,0
D,7,UZ,0
D,8,UX,0
D,8,UY,0
D,8,UZ,0
D,9,UX,0
D,9,UY,0
D,9,UZ,0
D,10,UX,0
D,10,UY,0
D,10,UZ,0
D,11,UX,0
D,11,UY,0
D,11,UZ,0
D,12,UX,0
D,12,UY,0
D,12,UZ,0
D,13,UX,0
D,13,UY,0
D,13,UZ,0
D,14,UX,0
D,14,UY,0
D,14,UZ,0
D,15,UX,0
D,15,UY,0
D,15,UZ,0
D,16,UX,0
D,16,UY,0
D,16,UZ,0
D,17,UX,0
D,17,UY,0
D,17,UZ,0
D,18,UX,0
D,18,UY,0
D,18,UZ,0
D,19,UX,0
D,19,UY,0
D,19,UZ,0
D,20,UX,0
D,20,UY,0
D,20,UZ,0
F,1342,FZ,10.925822
F,1344,FZ,11.706947
F,1377,FZ,9.7562467
F,1378,FZ,8.9047255
F,1379,FZ,8.8428834
F,1380,FZ,9.9869081
F,1381,FZ,10.773414
F,1382,FZ,9.9925761
F,1383,FZ,8.8429908
F,1384,FZ,8.4747841
F,1385,FZ,8.4748805
F,1386,FZ,8.476133
F,1387,FZ,8.8413215
F,1388,FZ,9.2053325
F,1389,FZ,8.8372484
F,1390,FZ,8.476227
F,1391,FZ,8.4809322
F,1392,FZ,9.2680656
F,1393,FZ,10.483783
F,2354,FZ,7.0627138
! ... 88 like lines cut
/GOPR
FINISH
