/TITLE Model: ASMSIMP2
/COM Finite Element Mesh - PTC - ANSYS 12.0 - ASMSIMP2
/PREP7
/NOPR
MP,EX,1,7.308443e+04
MP,ALPX,1,2.304000e-05
MP,NUXY,1,3.300000e-01
MP,DENS,1,2.793554e-09
MP,KXX,1,1.921632e+02
MP,C,1,9.637529e+08
LOCAL,11,0,0.000000,0.000000,0.000000,0.000000,0.000000,0.000000
LOCAL,12,0,0.000000,0.000000,0.000000,0.000000,0.000000,0.000000
LOCAL,13,0,0.000000,0.000000,0.000000,0.000000,0.000000,0.000000
CSYS,11
ET,1,92
N,1,0.000000,0.000000,0.000000
N,2,10.000000,0.000000,0.000000
N,3,10.000000,10.000000,0.000000
N,4,0.000000,10.000000,0.000000
N,5,2.500000,5.000000,0.000000
N,6,7.500000,5.000000,0.000000
N,7,3.333333,0.000000,0.000000
N,8,6.666667,0.000000,0.000000
N,9,10.000000,3.157895,0.000000
N,10,10.000000,6.315789,0.000000
N,11,6.315789,10.000000,0.000000
N,12,3.157895,10.000000,0.000000
N,13,0.000000,6.666667,0.000000
N,14,0.000000,3.333333,0.000000
N,15,2.650919,5.855444,0.000000
N,16,3.085142,6.607238,0.000000
N,17,3.749553,7.164765,0.000000
N,18,4.565063,7.461832,0.000000
N,19,5.434937,7.461832,0.000000
N,20,6.250447,7.164765,0.000000
! ... 2096 like lines cut
CSYS,12
NROTAT,1
NROTAT,2
NROTAT,3
NROTAT,4
NROTAT,5
NROTAT,6
NROTAT,7
NROTAT,8
NROTAT,9
NROTAT,10
NROTAT,11
NROTAT,12
NROTAT,13
NROTAT,14
NROTAT,15
NROTAT,16
NROTAT,17
NROTAT,18
NROTAT,19
NROTAT,20
! ... 90 like lines cut
SHPP,OFF
TYPE,1
MAT,1
EN,73,1389,1390,1391,1392
EN,74,1389,1393,1394,1395
EN,75,1393,1391,1389,1238
EN,76,1389,1238,1390,1396
EN,77,1391,1238,1397,1390
EN,78,1398,1399,1400,1401
EN,79,1398,1399,1402,1403
EN,80,1398,1404,1402,1399
EN,81,1405,1406,1407,1404
EN,82,1404,1408,1409,1410
EN,83,1398,1408,1404,1401
EN,84,1404,1409,1402,1411
EN,85,1404,1405,1401,1410
EN,86,1404,1406,1412,1399
EN,87,1411,1410,1407,1404
EN,88,1255,1413,1268,1269
EN,89,1404,1411,1399,1412
EN,90,1414,1415,1416,1417
EN,91,1414,1418,1419,1420
EN,92,1414,1420,1421,1422
! ... 7918 like lines cut
CERIG,35,171,ALL
CERIG,36,172,ALL
CERIG,37,174,ALL
CERIG,38,173,ALL
CERIG,39,175,ALL
CERIG,40,176,ALL
CERIG,41,177,ALL
CERIG,42,178,ALL
CERIG,43,179,ALL
CERIG,44,180,ALL
CERIG,45,181,ALL
CERIG,46,182,ALL
CERIG,47,183,ALL
CERIG,48,184,ALL
CERIG,49,185,ALL
CERIG,50,186,ALL
CERIG,51,187,ALL
CERIG,52,188,ALL
CERIG,53,189,ALL
CERIG,54,190,ALL
! ... 14 like lines cut
CERIG,205,1208,UX,UZ,ROTX,ROTY,ROTZ
CERIG,206,1207,UX,UZ,ROTX,ROTY,ROTZ
CERIG,207,560,UX,UZ,ROTX,ROTY,ROTZ
CERIG,208,559,UX,UZ,ROTX,ROTY,ROTZ
CERIG,209,1216,UX,UZ,ROTX,ROTY,ROTZ
CERIG,210,1215,UX,UZ,ROTX,ROTY,ROTZ
CERIG,211,1214,UX,UZ,ROTX,ROTY,ROTZ
CERIG,212,1213,UX,UZ,ROTX,ROTY,ROTZ
CERIG,213,1212,UX,UZ,ROTX,ROTY,ROTZ
CERIG,214,1211,UX,UZ,ROTX,ROTY,ROTZ
CERIG,215,1210,UX,UZ,ROTX,ROTY,ROTZ
CERIG,216,1209,UX,UZ,ROTX,ROTY,ROTZ
CERIG,217,1224,UX,UZ,ROTX,ROTY,ROTZ
CERIG,218,1223,UX,UZ,ROTX,ROTY,ROTZ
CERIG,219,1222,UX,UZ,ROTX,ROTY,ROTZ
CERIG,220,1221,UX,UZ,ROTX,ROTY,ROTZ
CERIG,221,1220,UX,UZ,ROTX,ROTY,ROTZ
CERIG,222,1219,UX,UZ,ROTX,ROTY,ROTZ
CERIG,223,1218,UX,UZ,ROTX,ROTY,ROTZ
CERIG,224,1217,UX,UZ,ROTX,ROTY,ROTZ
! ... 18 like lines cut
SHPP,ON
CHECK
D,1,UX,0
D,1,UY,0
D,1,UZ,0
D,2,UX,0
D,2,UY,0
D,2,UZ,0
D,3,UX,0
D,3,UY,0
D,3,UZ,0
D,4,UX,0
D,4,UY,0
D,4,UZ,0
D,5,UX,0
D,5,UY,0
D,5,UZ,0
D,6,UX,0
D,6,UY,0
D,6,UZ,0
D,7,UX,0
D,7,UY,0
D,7,UZ,0
D,8,UX,0
D,8,UY,0
D,8,UZ,0
D,9,UX,0
D,9,UY,0
D,9,UZ,0
D,10,UX,0
D,10,UY,0
D,10,UZ,0
D,11,UX,0
D,11,UY,0
D,11,UZ,0
D,12,UX,0
D,12,UY,0
D,12,UZ,0
D,13,UX,0
D,13,UY,0
D,13,UZ,0
D,14,UX,0
D,14,UY,0
D,14,UZ,0
D,15,UX,0
D,15,UY,0
D,15,UZ,0
D,16,UX,0
D,16,UY,0
D,16,UZ,0
D,17,UX,0
D,17,UY,0
D,17,UZ,0
D,18,UX,0
D,18,UY,0
D,18,UZ,0
D,19,UX,0
D,19,UY,0
D,19,UZ,0
D,20,UX,0
D,20,UY,0
D,20,UZ,0
! ... 42 like lines cut
F,243,FZ,60.457516
F,244,FZ,57.393791
F,245,FZ,57.393791
F,246,FZ,60.457516
F,247,FZ,47.794118
F,248,FZ,44.117647
F,249,FZ,44.117647
F,250,FZ,55.147059
F,251,FZ,45.138889
F,252,FZ,41.666667
F,253,FZ,45.138889
F,254,FZ,59.027778
F,255,FZ,47.794118
F,256,FZ,44.117647
F,257,FZ,44.117647
F,258,FZ,55.147059
F,259,FZ,41.319092
F,260,FZ,41.666667
F,261,FZ,48.958685
F,262,FZ,59.027778
/GOPR
FINISH
