C*** Output from COS2ANS translator Version 2010
C*** Date        : 10/20/2011     Time:   14:14:23
/PREP7
ANTYPE,STATIC
ET,1,SOLID92
MP,EX,1,0.210000E+12
MP,PRXY,1,0.280000
MP,GXY,1,0.790000E+11
MP,ALPX,1,0.130000E-04
MP,DENS,1,7700.00
MP,C,1,460.000
MP,KXX,1,50.0000
CSYS,0
N,1,-0.216840E-18,0.254000E-03,0.00000
N,2,0.00000,0.00000,0.00000
N,3,0.00000,0.00000,0.254000E-03
N,4,-0.216840E-18,0.254000E-03,0.254000E-03
N,5,0.254000E-03,0.00000,0.00000
N,6,0.254000E-03,0.00000,0.254000E-03
N,7,0.254000E-03,0.254000E-03,0.00000
N,8,0.254000E-03,0.254000E-03,0.254000E-03
N,9,0.126158E-03,0.133259E-03,0.115969E-03
N,10,0.190079E-03,0.193629E-03,0.184985E-03
N,11,0.190079E-03,0.193629E-03,0.579847E-04
N,12,0.254000E-03,0.254000E-03,0.127000E-03
N,13,0.190079E-03,0.666293E-04,0.184985E-03
N,14,0.254000E-03,0.127000E-03,0.254000E-03
N,15,0.254000E-03,0.127000E-03,0.127000E-03
N,16,0.190079E-03,0.666293E-04,0.579847E-04
N,17,0.254000E-03,0.127000E-03,0.00000
N,18,0.254000E-03,0.00000,0.127000E-03
N,19,0.630789E-04,0.193629E-03,0.184985E-03
N,20,0.127000E-03,0.254000E-03,0.254000E-03
! ... 15 like lines cut
MAT,1
REAL,1
EN,1,2,4,3,9,28,25,29,26,
EMORE,19,21,
EN,2,9,1,5,2,30,33,16,26,
EMORE,35,27,
EN,3,6,7,9,8,15,11,13,14,
EMORE,12,10,
EN,4,2,9,1,4,26,30,35,28,
EMORE,19,34,
EN,5,6,8,9,3,14,10,13,23,
EMORE,22,21,
EN,6,6,5,3,9,18,24,23,13,
EMORE,16,21,
EN,7,7,8,1,9,12,31,32,11,
EMORE,10,30,
EN,8,6,5,9,7,18,16,13,15,
EMORE,17,11,
EN,9,5,9,2,3,16,26,27,24,
EMORE,21,29,
EN,10,7,5,9,1,17,16,11,32,
EMORE,33,30,
EN,11,9,4,3,8,19,25,21,10,
EMORE,20,22,
EN,12,4,1,8,9,34,31,20,19,
EMORE,30,10,
FINISH
/SOLU
SOLVE
FINISH
