C*** Output from COS2ANS translator Version 2010
C*** Date        : 10/19/2011     Time:   15:28:43
/PREP7
ANTYPE,STATIC
ET,1,SOLID92
MP,EX,1,0.210000E+12
MP,PRXY,1,0.280000
MP,GXY,1,0.790000E+11
MP,ALPX,1,0.130000E-04
MP,DENS,1,7700.00
MP,C,1,460.000
MP,KXX,1,50.0000
CSYS,0
K,1,0.00000,0.304800,0.127000E-01
K,2,1.00000,0.304800,0.127000E-01
K,3,0.00000,-0.695200,0.127000E-01
CSKP,13,0,1,2,3
CSYS,0
N,1,0.00000,0.304800,0.00000
N,2,0.00000,0.294290,0.00000
N,3,0.00000,0.283779,0.00000
N,4,0.00000,0.273269,0.00000
N,5,0.00000,0.262759,0.00000
N,6,0.00000,0.252248,0.00000
N,7,0.00000,0.241738,0.00000
N,8,0.00000,0.231228,0.00000
N,9,0.00000,0.220717,0.00000
N,10,0.00000,0.210207,0.00000
N,11,0.00000,0.199697,0.00000
N,12,0.00000,0.189186,0.00000
N,13,0.00000,0.178676,0.00000
N,14,0.00000,0.168166,0.00000
N,15,0.00000,0.157655,0.00000
N,16,0.00000,0.147145,0.00000
N,17,0.00000,0.136634,0.00000
N,18,0.00000,0.126124,0.00000
N,19,0.00000,0.115614,0.00000
N,20,0.00000,0.105103,0.00000
! ... 15980 like lines cut
MAT,1
REAL,1
EN,1,1749,1750,560,588,3907,12123,12124,11910,
EMORE,11909,12126,
EN,2,1749,1751,587,559,3906,11917,11918,12132,
EMORE,12131,12134,
EN,3,1749,1750,1344,1316,3907,6516,6517,6706,
EMORE,6705,6708,
EN,4,1749,1343,1751,1315,6524,6523,3906,6713,
EMORE,6715,6712,
EN,5,1749,1752,1343,1344,3905,6522,6524,6517,
EMORE,6515,6527,
EN,6,1749,588,1752,1344,11910,11908,3905,6517,
EMORE,11911,6515,
EN,7,1753,21,1754,1552,15862,15861,3894,5181,
EMORE,15863,5180,
EN,8,1753,41,1754,21,15756,15755,3894,15862,
EMORE,15866,15861,
EN,9,1753,1755,1756,824,3893,3887,3892,10162,
EMORE,10161,10160,
EN,10,1753,1755,22,1580,3893,15854,15855,4993,
EMORE,4992,15856,
EN,11,1753,1754,41,796,3894,15755,15756,10377,
EMORE,10376,15757,
EN,12,1753,1755,824,40,3893,10161,10162,15761,
EMORE,15760,15762,
EN,13,1755,1757,852,1608,3886,9945,9946,4804,
EMORE,4803,9947,
EN,14,1753,1756,1580,1552,3892,4991,4993,5181,
EMORE,5179,5182,
EN,15,1758,1759,1687,1659,3880,4267,4268,4457,
EMORE,4456,4458,
EN,16,1755,1756,824,1580,3887,10160,10161,4992,
EMORE,4991,10163,
EN,17,1760,1664,908,1761,4423,9515,9514,3873,
EMORE,4422,9513,
EN,18,1755,1757,1608,1580,3886,4803,4804,4992,
EMORE,4990,4994,
EN,19,1753,1762,1754,796,3891,3890,3894,10377,
EMORE,10374,10376,
EN,20,1755,40,22,23,15760,15859,15854,15848,
EMORE,15851,15860,
! ... 18574 like lines cut
CSYS,0
D,30,ALL,0.0,,30
D,31,ALL,0.0,,31
D,32,ALL,0.0,,32
D,63,ALL,0.0,,63
D,64,ALL,0.0,,64
D,65,ALL,0.0,,65
D,66,ALL,0.0,,66
D,67,ALL,0.0,,67
D,68,ALL,0.0,,68
D,69,ALL,0.0,,69
D,70,ALL,0.0,,70
D,71,ALL,0.0,,71
D,72,ALL,0.0,,72
D,73,ALL,0.0,,73
D,74,ALL,0.0,,74
D,75,ALL,0.0,,75
D,76,ALL,0.0,,76
D,77,ALL,0.0,,77
D,78,ALL,0.0,,78
D,79,ALL,0.0,,79
! ... 341 like lines cut
F,32,FZ,0.639746E-08
F,33,FZ,0.163582E-07
F,34,FZ,-0.248843E-07
F,35,FZ,0.182645E-07
F,36,FZ,-0.287726E-07
F,37,FZ,0.915799E-08
F,38,FZ,0.232313E-07
F,39,FZ,-0.772497E-08
F,40,FZ,-0.675861E-09
F,41,FZ,0.119926E-07
F,42,FZ,0.351372E-08
F,43,FZ,0.213381E-08
F,44,FZ,0.918292E-08
F,45,FZ,-0.217235E-07
F,46,FZ,0.203717E-07
F,47,FZ,0.203717E-07
F,48,FZ,-0.161041E-07
F,49,FZ,-0.772497E-08
F,50,FZ,0.775315E-08
F,51,FZ,0.189918E-07
! ... 3349 like lines cut
LSWRITE,1
FINISH
/SOLU
SOLVE
FINISH
