/TITLE Model: BEAM
/COM Finite Element Mesh - PTC - ANSYS 12.0 - BEAM
/PREP7
/NOPR
MP,EX,1,1.119657e+10
MP,ALPX,1,6.500000e-06
MP,NUXY,1,2.700000e-01
MP,DENS,1,2.827713e-01
MP,KXX,1,2.074068e+03
MP,C,1,4.076000e+05
LOCAL,11,0,0.000000,0.000000,0.000000,0.000000,0.000000,0.000000
LOCAL,12,0,0.000000,0.000000,0.000000,0.000000,0.000000,0.000000
LOCAL,13,0,0.000000,0.000000,0.000000,0.000000,0.000000,0.000000
CSYS,11
ET,1,92
N,1,0.000000,0.000000,0.000000
N,2,0.000000,12.000000,0.000000
N,3,0.000000,12.000000,12.000000
N,4,0.000000,0.000000,12.000000
N,5,0.000000,4.000000,0.000000
N,6,0.000000,8.000000,0.000000
N,7,0.000000,12.000000,4.000000
N,8,0.000000,12.000000,8.000000
N,9,0.000000,8.000000,12.000000
N,10,0.000000,4.000000,12.000000
N,11,0.000000,0.000000,8.000000
N,12,0.000000,0.000000,4.000000
N,13,0.000000,4.455784,4.454392
N,14,0.000000,5.754280,8.619845
N,15,0.000000,8.592834,5.736585
N,16,0.000000,9.269423,9.271286
N,17,72.000000,0.000000,0.000000
N,18,72.000000,12.000000,0.000000
N,19,72.000000,0.000000,12.000000
N,20,72.000000,12.000000,12.000000
! ... 294 like lines cut
CSYS,12
NROTAT,1
NROTAT,2
NROTAT,3
NROTAT,4
NROTAT,5
NROTAT,6
NROTAT,7
NROTAT,8
NROTAT,9
NROTAT,10
NROTAT,11
NROTAT,12
NROTAT,13
NROTAT,14
NROTAT,15
NROTAT,16
SHPP,OFF
TYPE,1
MAT,1
EN,1,237,238,239,240
EN,2,239,238,233,241
EN,3,242,239,238,233
EN,4,243,223,83,84
EN,5,233,198,201,241
EN,6,241,244,194,240
EN,7,241,194,244,198
EN,8,201,199,245,241
EN,9,246,247,173,248
EN,10,174,246,248,249
EN,11,246,153,154,173
EN,12,246,250,251,247
EN,13,252,246,250,251
EN,14,246,247,251,204
EN,15,246,207,249,205
EN,16,158,181,212,157
EN,17,253,188,254,255
EN,18,253,254,256,243
EN,19,253,219,161,188
EN,20,253,254,189,256
! ... 1012 like lines cut
SHPP,ON
CHECK
D,1,UX,0
D,1,UY,0
D,1,UZ,0
D,2,UX,0
D,2,UY,0
D,2,UZ,0
D,3,UX,0
D,3,UY,0
D,3,UZ,0
D,4,UX,0
D,4,UY,0
D,4,UZ,0
D,5,UX,0
D,5,UY,0
D,5,UZ,0
D,6,UX,0
D,6,UY,0
D,6,UZ,0
D,7,UX,0
D,7,UY,0
D,7,UZ,0
D,8,UX,0
D,8,UY,0
D,8,UZ,0
D,9,UX,0
D,9,UY,0
D,9,UZ,0
D,10,UX,0
D,10,UY,0
D,10,UZ,0
D,11,UX,0
D,11,UY,0
D,11,UZ,0
D,12,UX,0
D,12,UY,0
D,12,UZ,0
D,13,UX,0
D,13,UY,0
D,13,UZ,0
D,14,UX,0
D,14,UY,0
D,14,UZ,0
D,15,UX,0
D,15,UY,0
D,15,UZ,0
D,16,UX,0
D,16,UY,0
D,16,UZ,0
F,19,FZ,-166.66667
F,20,FZ,-166.66667
F,25,FZ,-333.33333
F,26,FZ,-333.33333
/GOPR
FINISH
