/TITLE Model: ASMSIMP
/COM Finite Element Mesh - PTC - ANSYS 12.0 - ASMSIMP
/PREP7
/NOPR
MP,EX,1,1.999480e+05
MP,ALPX,1,1.170000e-05
MP,NUXY,1,2.700000e-01
MP,DENS,1,7.827082e-09
MP,KXX,1,4.301252e+01
MP,C,1,4.733410e+08
MP,EX,2,7.308443e+04
MP,ALPX,2,2.304000e-05
MP,NUXY,2,3.300000e-01
MP,DENS,2,2.793554e-09
MP,KXX,2,1.921632e+02
MP,C,2,9.637529e+08
LOCAL,11,0,0.000000,0.000000,0.000000,0.000000,0.000000,0.000000
LOCAL,12,0,0.000000,0.000000,0.000000,0.000000,0.000000,0.000000
LOCAL,13,0,0.000000,0.000000,0.000000,0.000000,0.000000,0.000000
CSYS,11
ET,1,40,,,1
ET,2,92
R,1
RMODIF,1,4,0
RMODIF,1,6,0
N,1,0.000000,0.000000,0.000000
N,2,10.000000,0.000000,0.000000
N,3,10.000000,10.000000,0.000000
N,4,0.000000,10.000000,0.000000
N,5,2.500000,5.000000,0.000000
N,6,7.500000,5.000000,0.000000
N,7,3.333333,0.000000,0.000000
N,8,6.666667,0.000000,0.000000
N,9,10.000000,3.157895,0.000000
N,10,10.000000,6.315789,0.000000
N,11,6.315789,10.000000,0.000000
N,12,3.157895,10.000000,0.000000
N,13,0.000000,6.666667,0.000000
N,14,0.000000,3.333333,0.000000
N,15,2.650919,5.855444,0.000000
N,16,3.085142,6.607238,0.000000
N,17,3.749553,7.164765,0.000000
N,18,4.565063,7.461832,0.000000
N,19,5.434937,7.461832,0.000000
N,20,6.250447,7.164765,0.000000
! ... 1701 like lines cut
CSYS,12
NROTAT,1
NROTAT,2
NROTAT,3
NROTAT,4
NROTAT,5
NROTAT,6
NROTAT,7
NROTAT,8
NROTAT,9
NROTAT,10
NROTAT,11
NROTAT,12
NROTAT,13
NROTAT,14
NROTAT,15
NROTAT,16
NROTAT,17
NROTAT,18
NROTAT,19
NROTAT,20
! ... 14 like lines cut
SHPP,OFF
TYPE,1
REAL,1
EN,1,35,171
EN,2,36,172
EN,3,37,174
EN,4,38,173
EN,5,39,175
EN,6,40,176
EN,7,41,177
EN,8,42,178
EN,9,43,179
EN,10,44,180
EN,11,45,181
EN,12,46,182
EN,13,47,183
EN,14,48,184
EN,15,49,185
EN,16,50,186
EN,17,51,187
EN,18,52,188
EN,19,53,189
EN,20,54,190
! ... 14 like lines cut
TYPE,2
MAT,1
EN,35,1062,1063,1064,1065
EN,36,1065,1063,1066,1067
EN,37,1065,1067,1066,1068
EN,38,1065,1069,1070,1071
EN,39,1065,1072,1069,1073
EN,40,1065,1068,1066,1074
EN,41,1065,1069,1072,1074
EN,42,1075,1069,1076,1077
EN,43,1078,1077,1079,1076
EN,44,1077,1069,1076,1078
EN,45,1065,1073,1062,1072
EN,46,1080,1078,1076,1069
EN,47,1081,1078,1077,1082
EN,48,1080,1069,1076,1072
EN,49,1072,1069,1076,1074
EN,50,1083,1084,1085,1086
EN,51,933,1087,1088,1089
EN,52,1078,1087,1082,1089
EN,53,1090,1091,1092,1093
EN,54,1094,1071,1095,1070
! ... 5532 like lines cut
MAT,2
EN,5587,1663,1664,316,1665
EN,5588,1663,194,203,324
EN,5589,1663,322,194,324
EN,5590,1663,1664,320,321
EN,5591,320,1663,193,1664
EN,5592,1666,175,179,185
EN,5593,1663,1664,203,193
EN,5594,1667,337,1668,328
EN,5595,1663,203,1669,1667
EN,5596,1668,324,1667,203
EN,5597,1667,1668,337,324
EN,5598,1667,1670,1669,1665
EN,5599,1667,1665,316,318
EN,5600,1670,238,241,251
EN,5601,1663,1667,1665,316
EN,5602,1671,279,186,202
EN,5603,1671,275,1666,185
EN,5604,1671,1666,179,185
EN,5605,1671,179,1672,202
EN,5606,1671,185,179,202
! ... 637 like lines cut
MAT,1
EN,6244,52,45,53,97
EN,6245,1699,51,96,52
EN,6246,1699,98,1700,100
EN,6247,97,45,53,1701
EN,6248,1699,1700,45,1701
EN,6249,1702,33,138,23
EN,6250,10,80,6,1702
EN,6251,1702,78,1703,79
EN,6252,135,1702,128,1704
EN,6253,1702,1704,135,137
EN,6254,1702,9,23,6
EN,6255,1705,1700,1706,108
EN,6256,1700,11,111,1705
EN,6257,46,1705,11,1700
EN,6258,1704,1707,134,1708
EN,6259,1700,1701,101,105
EN,6260,98,99,1709,1700
EN,6261,1700,1701,100,101
EN,6262,1699,85,51,66
EN,6263,1700,1705,1706,46
! ... 518 like lines cut
SHPP,ON
CHECK
D,1,UX,0
D,1,UY,0
D,1,UZ,0
D,2,UX,0
D,2,UY,0
D,2,UZ,0
D,3,UX,0
D,3,UY,0
D,3,UZ,0
D,4,UX,0
D,4,UY,0
D,4,UZ,0
D,5,UX,0
D,5,UY,0
D,5,UZ,0
D,6,UX,0
D,6,UY,0
D,6,UZ,0
D,7,UX,0
D,7,UY,0
D,7,UZ,0
D,8,UX,0
D,8,UY,0
D,8,UZ,0
D,9,UX,0
D,9,UY,0
D,9,UZ,0
D,10,UX,0
D,10,UY,0
D,10,UZ,0
D,11,UX,0
D,11,UY,0
D,11,UZ,0
D,12,UX,0
D,12,UY,0
D,12,UZ,0
D,13,UX,0
D,13,UY,0
D,13,UZ,0
D,14,UX,0
D,14,UY,0
D,14,UZ,0
D,15,UX,0
D,15,UY,0
D,15,UZ,0
D,16,UX,0
D,16,UY,0
D,16,UZ,0
D,17,UX,0
D,17,UY,0
D,17,UZ,0
D,18,UX,0
D,18,UY,0
D,18,UZ,0
D,19,UX,0
D,19,UY,0
D,19,UZ,0
D,20,UX,0
D,20,UY,0
D,20,UZ,0
! ... 42 like lines cut
F,240,FZ,74.561404
F,241,FZ,81.140351
F,242,FZ,78.947368
F,243,FZ,92.105263
F,244,FZ,83.333333
F,245,FZ,83.333333
F,246,FZ,69.078947
F,247,FZ,52.631579
F,248,FZ,55.921053
F,249,FZ,85.526316
F,250,FZ,78.947368
F,251,FZ,78.947368
F,252,FZ,85.526316
/GOPR
FINISH
